BEGIN OPTIONS
  QOUTFLOW FILEOUT  qoutflow.bin
  QOUTFLOW PRINT_FORMAT  COLUMNS 15  WIDTH 7  DIGITS 2  FIXED
END OPTIONS

BEGIN PERIOD 1
  PRINT BUDGET ALL
  SAVE QOUTFLOW ALL
  PRINT QOUTFLOW LAST
END PERIOD
