BEGIN GRIDDATA
  ZETASTRT [LAYERED]
    <zetastrt(nodes)> -- READARRAY
END GRIDDATA
