BEGIN OPTIONS
  [SALTWATER]
  [ZETA FILEOUT <zetafile>]
END OPTIONS
