BEGIN OPTIONS
  [SAVE_FLOWS]
  [PRINT_FLOWS]
  [OBS6 FILEIN <obs6_filename>]
END OPTIONS
